/*--------------------------------*- C++ -*----------------------------------*\
| =========                 |                                                 |
| \\      /  F ield         | OpenFOAM: The Open Source CFD Toolbox           |
|  \\    /   O peration     | Version:  4.1                                   |
|   \\  /    A nd           | Web:      www.OpenFOAM.org                      |
|    \\/     M anipulation  |                                                 |
\*---------------------------------------------------------------------------*/
FoamFile
{
    version     2.0;
    format      binary;
    class       polyBoundaryMesh;
    location    "constant/polyMesh";
    object      boundary;
}
// * * * * * * * * * * * * * * * * * * * * * * * * * * * * * * * * * * * * * //

3
(
    walls
    {
        type            wall;
        inGroups        1(wall);
        nFaces          2000;
        startFace       2389336;
    }
    front
    {
        type            empty;
        inGroups        1(empty);
        nFaces          1188928;
        startFace       2391336;
    }
    back
    {
        type            empty;
        inGroups        1(empty);
        nFaces          1188928;
        startFace       3580264;
    }
)

// ************************************************************************* //
