/*--------------------------------*- C++ -*----------------------------------*\
| =========                 |                                                 |
| \\      /  F ield         | OpenFOAM: The Open Source CFD Toolbox           |
|  \\    /   O peration     | Version:  4.1                                   |
|   \\  /    A nd           | Web:      www.OpenFOAM.org                      |
|    \\/     M anipulation  |                                                 |
\*---------------------------------------------------------------------------*/
FoamFile
{
    version     2.0;
    format      binary;
    class       polyBoundaryMesh;
    location    "constant/polyMesh";
    object      boundary;
}
// * * * * * * * * * * * * * * * * * * * * * * * * * * * * * * * * * * * * * //

4
(
    walls
    {
        type            wall;
        inGroups        1(wall);
        nFaces          334;
        startFace       238781;
    }
    front
    {
        type            empty;
        inGroups        1(empty);
        nFaces          118893;
        startFace       239115;
    }
    back
    {
        type            empty;
        inGroups        1(empty);
        nFaces          118893;
        startFace       358008;
    }
    procBoundary0to1
    {
        type            processor;
        inGroups        1(processor);
        nFaces          172;
        startFace       476901;
        matchTolerance  0.0001;
        transform       unknown;
        myProcNo        0;
        neighbProcNo    1;
    }
)

// ************************************************************************* //
