/*--------------------------------*- C++ -*----------------------------------*\
| =========                 |                                                 |
| \\      /  F ield         | OpenFOAM: The Open Source CFD Toolbox           |
|  \\    /   O peration     | Version:  4.x                                   |
|   \\  /    A nd           | Web:      www.OpenFOAM.org                      |
|    \\/     M anipulation  |                                                 |
\*---------------------------------------------------------------------------*/
FoamFile
{
    version     2.0;
    format      ascii;
    class       dictionary;
    location    "system";
    object      setFieldsDict;
}
// * * * * * * * * * * * * * * * * * * * * * * * * * * * * * * * * * * * * * //

defaultFieldValues
(
    volScalarFieldValue alpha.water 0
    volVectorFieldValue U (0 0 0)
);

regions
(
    boxToCell
    {
        box (28.125 -999 -999) (31.875 999 0.8325);
        fieldValues
        (
            volScalarFieldValue relax 1
        );
    }
    boxToCell
    {
        box (-999. -999. -999.) (999. 999. 0.74);
        fieldValues
        (
            volScalarFieldValue alpha.water 1
        );
    }
 );


// ************************************************************************* //
