/*--------------------------------*- C++ -*----------------------------------*\
| =========                 |                                                 |
| \\      /  F ield         | OpenFOAM: The Open Source CFD Toolbox           |
|  \\    /   O peration     | Version:  4.1                                   |
|   \\  /    A nd           | Web:      www.OpenFOAM.org                      |
|    \\/     M anipulation  |                                                 |
\*---------------------------------------------------------------------------*/
FoamFile
{
    version     2.0;
    format      binary;
    class       polyBoundaryMesh;
    location    "constant/polyMesh";
    object      boundary;
}
// * * * * * * * * * * * * * * * * * * * * * * * * * * * * * * * * * * * * * //

3
(
    walls
    {
        type            wall;
        inGroups        1(wall);
        nFaces          16916;
        startFace       2287862;
    }
    back
    {
        type            empty;
        inGroups        1(empty);
        nFaces          1148160;
        startFace       2304778;
    }
    defaultFaces
    {
        type            empty;
        inGroups        1(empty);
        nFaces          1148160;
        startFace       3452938;
    }
)

// ************************************************************************* //
