/*--------------------------------*- C++ -*----------------------------------*\
| =========                 |                                                 |
| \\      /  F ield         | OpenFOAM: The Open Source CFD Toolbox           |
|  \\    /   O peration     | Version:  4.x                                   |
|   \\  /    A nd           | Web:      www.OpenFOAM.org                      |
|    \\/     M anipulation  |                                                 |
\*---------------------------------------------------------------------------*/
FoamFile
{
    version     2.0;
    format      ascii;
    class       dictionary;
    object      blockMeshDict;
}
// * * * * * * * * * * * * * * * * * * * * * * * * * * * * * * * * * * * * * //

convertToMeters 1;

vertices
(
    (-1.5 0 0.0)
    (11.5 0 0.0)
    (11.5 0.1 0.0)
    (-1.5 0.1 0.0)
    (-1.5 0 0.184)
    (11.5 0 0.184)
    (11.5 0.1 0.184)
    (-1.5 0.1 0.184)
);

blocks
(
    hex (0 1 2 3 4 5 6 7) (832 1 73) simpleGrading (1 1 1)
);

edges
(
);

boundary
(
    walls
    {
        type wall;
        faces
        (
            (0 4 7 3)
            (4 5 6 7)
            (1 2 6 5)
            (0 3 2 1)
        );
     }
  front
	{
	type empty;
	faces
	(
     	 (0 1 5 4)
	);
	}
  back
	{
	type empty;
	faces
	(
 	 (3 7 6 2)
	);
	}
);

mergePatchPairs
(
);

// ************************************************************************* //
